L24/1726534/Trafos.dss
! ==========================================================
! TRANSFORMADORES DE DISTRIBUICAO — gerados de UNTRMT/EQTRMT
! Secundario 1F/2F: 3 enrolamentos com derivacao central
! Neutro no no 4, aterrado em _ATERRAMENTO.dss
! Kv de BT conforme TEN_LIN_SE da BDGD
! ==========================================================
New Transformer.1907794676_1907794675 phases=3 windings=2 Xhl=4.900
~ wdg=1 bus=node_2226744246.1.2.3 conn=delta Kv=13.8 Kva=300.0 %R=0.495
~ wdg=2 bus=node_2226744142.1.2.3.4 conn=wye Kv=0.2200 Kva=300.0 %R=0.495
New Transformer.2577225230_2577225231 phases=3 windings=2 Xhl=3.840
~ wdg=1 bus=node_434341004.1.2.3 conn=delta Kv=13.8 Kva=150.0 %R=0.565
~ wdg=2 bus=node_418553319.1.2.3.4 conn=wye Kv=0.2200 Kva=150.0 %R=0.565
New Transformer.326107433_1535986820 phases=3 windings=2 Xhl=3.840
~ wdg=1 bus=node_426462598.1.2.3 conn=delta Kv=13.8 Kva=150.0 %R=0.565
~ wdg=2 bus=node_416119777.1.2.3.4 conn=wye Kv=0.2200 Kva=150.0 %R=0.565
New Transformer.326107187_326723337 phases=3 windings=2 Xhl=3.840
~ wdg=1 bus=node_437350953.1.2.3 conn=delta Kv=13.8 Kva=150.0 %R=0.565
~ wdg=2 bus=node_414125128.1.2.3.4 conn=wye Kv=0.2200 Kva=150.0 %R=0.565
New Transformer.1415951153_1415951154 phases=3 windings=2 Xhl=3.840
~ wdg=1 bus=node_1712829859.1.2.3 conn=delta Kv=13.8 Kva=150.0 %R=0.565
~ wdg=2 bus=node_1712829733.1.2.3.4 conn=wye Kv=0.2200 Kva=150.0 %R=0.565
New Transformer.325523528_326744391 phases=3 windings=2 Xhl=3.840
~ wdg=1 bus=node_435288416.1.2.3 conn=delta Kv=13.8 Kva=150.0 %R=0.565
~ wdg=2 bus=node_403579346.1.2.3.4 conn=wye Kv=0.2200 Kva=150.0 %R=0.565
New Transformer.2239200827_2239200831 phases=3 windings=2 Xhl=3.840
~ wdg=1 bus=node_2545169813.1.2.3 conn=delta Kv=13.8 Kva=150.0 %R=0.565
~ wdg=2 bus=node_2545169740.1.2.3.4 conn=wye Kv=0.2200 Kva=150.0 %R=0.565
New Transformer.325955842_326705010 phases=3 windings=2 Xhl=3.840
~ wdg=1 bus=node_426948236.1.2.3 conn=delta Kv=13.8 Kva=150.0 %R=0.565
~ wdg=2 bus=node_403649046.1.2.3.4 conn=wye Kv=0.2200 Kva=150.0 %R=0.565
New Transformer.326384026_326721923 phases=3 windings=2 Xhl=3.840
~ wdg=1 bus=node_426948872.1.2.3 conn=delta Kv=13.8 Kva=112.5 %R=0.565
~ wdg=2 bus=node_403580060.1.2.3.4 conn=wye Kv=0.2200 Kva=112.5 %R=0.565
New Transformer.326386883_326786858 phases=3 windings=2 Xhl=3.840
~ wdg=1 bus=node_426948592.1.2.3 conn=delta Kv=13.8 Kva=112.5 %R=0.565
~ wdg=2 bus=node_403649784.1.2.3.4 conn=wye Kv=0.2200 Kva=112.5 %R=0.565
New Transformer.325953322_326721926 phases=3 windings=2 Xhl=3.840
~ wdg=1 bus=node_426797731.1.2.3 conn=delta Kv=13.8 Kva=112.5 %R=0.565
~ wdg=2 bus=node_403649118.1.2.3.4 conn=wye Kv=0.2200 Kva=112.5 %R=0.565
New Transformer.325954459_326787069 phases=3 windings=2 Xhl=3.840
~ wdg=1 bus=node_428275839.1.2.3 conn=delta Kv=13.8 Kva=112.5 %R=0.565
~ wdg=2 bus=node_414123307.1.2.3.4 conn=wye Kv=0.2200 Kva=112.5 %R=0.565
New Transformer.325957459_326789727 phases=3 windings=2 Xhl=3.840
~ wdg=1 bus=node_437349654.1.2.3 conn=delta Kv=13.8 Kva=112.5 %R=0.565
~ wdg=2 bus=node_414125140.1.2.3.4 conn=wye Kv=0.2200 Kva=112.5 %R=0.565
New Transformer.326523155_326745866 phases=3 windings=2 Xhl=3.840
~ wdg=1 bus=node_437026990.1.2.3 conn=delta Kv=13.8 Kva=112.5 %R=0.565
~ wdg=2 bus=node_414123145.1.2.3.4 conn=wye Kv=0.2200 Kva=112.5 %R=0.565
New Transformer.326383163_326744527 phases=3 windings=2 Xhl=3.770
~ wdg=1 bus=node_437026275.1.2.3 conn=delta Kv=13.8 Kva=75.0 %R=0.670
~ wdg=2 bus=node_414100379.1.2.3.4 conn=wye Kv=0.2200 Kva=75.0 %R=0.670
New Transformer.326383472_326767279 phases=3 windings=2 Xhl=3.770
~ wdg=1 bus=node_428277333.1.2.3 conn=delta Kv=13.8 Kva=75.0 %R=0.670
~ wdg=2 bus=node_414097700.1.2.3.4 conn=wye Kv=0.2200 Kva=75.0 %R=0.670
New Transformer.326384046_326789730 phases=3 windings=2 Xhl=3.770
~ wdg=1 bus=node_430713077.1.2.3 conn=delta Kv=13.8 Kva=75.0 %R=0.670
~ wdg=2 bus=node_414123709.1.2.3.4 conn=wye Kv=0.2200 Kva=75.0 %R=0.670
New Transformer.326384787_326705200 phases=3 windings=2 Xhl=3.770
~ wdg=1 bus=node_430710040.1.2.3 conn=delta Kv=13.8 Kva=75.0 %R=0.670
~ wdg=2 bus=node_414097325.1.2.3.4 conn=wye Kv=0.2200 Kva=75.0 %R=0.670
New Transformer.326384794_326722133 phases=3 windings=2 Xhl=3.770
~ wdg=1 bus=node_429078317.1.2.3 conn=delta Kv=13.8 Kva=75.0 %R=0.670
~ wdg=2 bus=node_414096902.1.2.3.4 conn=wye Kv=0.2200 Kva=75.0 %R=0.670
New Transformer.326384805_326744525 phases=3 windings=2 Xhl=3.770
~ wdg=1 bus=node_437028200.1.2.3 conn=delta Kv=13.8 Kva=75.0 %R=0.670
~ wdg=2 bus=node_414100268.1.2.3.4 conn=wye Kv=0.2200 Kva=75.0 %R=0.670
New Transformer.326384862_326789735 phases=3 windings=2 Xhl=3.770
~ wdg=1 bus=node_426621896.1.2.3 conn=delta Kv=13.8 Kva=75.0 %R=0.670
~ wdg=2 bus=node_414100220.1.2.3.4 conn=wye Kv=0.2200 Kva=75.0 %R=0.670
New Transformer.326385269_326721983 phases=3 windings=2 Xhl=3.770
~ wdg=1 bus=node_426948132.1.2.3 conn=delta Kv=13.8 Kva=75.0 %R=0.670
~ wdg=2 bus=node_403728347.1.2.3.4 conn=wye Kv=0.2200 Kva=75.0 %R=0.670
New Transformer.326385104_2071786300 phases=3 windings=2 Xhl=3.770
~ wdg=1 bus=node_426795228.1.2.3 conn=delta Kv=13.8 Kva=75.0 %R=0.670
~ wdg=2 bus=node_416045556.1.2.3.4 conn=wye Kv=0.2200 Kva=75.0 %R=0.670
New Transformer.326385049_326705016 phases=3 windings=2 Xhl=3.770
~ wdg=1 bus=node_435288422.1.2.3 conn=delta Kv=13.8 Kva=75.0 %R=0.670
~ wdg=2 bus=node_403580048.1.2.3.4 conn=wye Kv=0.2200 Kva=75.0 %R=0.670
New Transformer.326385567_326721967 phases=3 windings=2 Xhl=3.770
~ wdg=1 bus=node_427790350.1.2.3 conn=delta Kv=13.8 Kva=75.0 %R=0.670
~ wdg=2 bus=node_513706010.1.2.3.4 conn=wye Kv=0.2200 Kva=75.0 %R=0.670
New Transformer.326385449_326767276 phases=3 windings=2 Xhl=3.770
~ wdg=1 bus=node_426624110.1.2.3 conn=delta Kv=13.8 Kva=75.0 %R=0.670
~ wdg=2 bus=node_414125032.1.2.3.4 conn=wye Kv=0.2200 Kva=75.0 %R=0.670
New Transformer.326386571_326787071 phases=3 windings=2 Xhl=3.770
~ wdg=1 bus=node_426622651.1.2.3 conn=delta Kv=13.8 Kva=75.0 %R=0.670
~ wdg=2 bus=node_414124711.1.2.3.4 conn=wye Kv=0.2200 Kva=75.0 %R=0.670
New Transformer.325953250_1832047984 phases=3 windings=2 Xhl=3.770
~ wdg=1 bus=node_2154390043.1.2.3 conn=delta Kv=13.8 Kva=75.0 %R=0.670
~ wdg=2 bus=node_2154390037.1.2.3.4 conn=wye Kv=0.2200 Kva=75.0 %R=0.670
New Transformer.325953279_326745864 phases=3 windings=2 Xhl=3.770
~ wdg=1 bus=node_437027955.1.2.3 conn=delta Kv=13.8 Kva=75.0 %R=0.670
~ wdg=2 bus=node_414123505.1.2.3.4 conn=wye Kv=0.2200 Kva=75.0 %R=0.670
New Transformer.325953398_326706859 phases=3 windings=2 Xhl=3.770
~ wdg=1 bus=node_426462173.1.2.3 conn=delta Kv=13.8 Kva=75.0 %R=0.670
~ wdg=2 bus=node_416039108.1.2.3.4 conn=wye Kv=0.2200 Kva=75.0 %R=0.670
New Transformer.325953449_2703511130 phases=3 windings=2 Xhl=3.770
~ wdg=1 bus=node_426948352.1.2.3 conn=delta Kv=13.8 Kva=75.0 %R=0.670
~ wdg=2 bus=node_403649097.1.2.3.4 conn=wye Kv=0.2200 Kva=75.0 %R=0.670
New Transformer.325953960_326744520 phases=3 windings=2 Xhl=3.770
~ wdg=1 bus=node_436850005.1.2.3 conn=delta Kv=13.8 Kva=75.0 %R=0.670
~ wdg=2 bus=node_414122032.1.2.3.4 conn=wye Kv=0.2200 Kva=75.0 %R=0.670
New Transformer.325954129_326745692 phases=3 windings=2 Xhl=3.770
~ wdg=1 bus=node_426948947.1.2.3 conn=delta Kv=13.8 Kva=75.0 %R=0.670
~ wdg=2 bus=node_403579349.1.2.3.4 conn=wye Kv=0.2200 Kva=75.0 %R=0.670
New Transformer.325954717_419798616 phases=3 windings=2 Xhl=3.770
~ wdg=1 bus=node_444294684.1.2.3 conn=delta Kv=13.8 Kva=75.0 %R=0.670
~ wdg=2 bus=node_403579103.1.2.3.4 conn=wye Kv=0.2200 Kva=75.0 %R=0.670
New Transformer.325954802_2651422203 phases=3 windings=2 Xhl=3.770
~ wdg=1 bus=node_433882340.1.2.3 conn=delta Kv=13.8 Kva=75.0 %R=0.670
~ wdg=2 bus=node_403730147.1.2.3.4 conn=wye Kv=0.2200 Kva=75.0 %R=0.670
New Transformer.325954943_326767275 phases=3 windings=2 Xhl=3.770
~ wdg=1 bus=node_426624359.1.2.3 conn=delta Kv=13.8 Kva=75.0 %R=0.670
~ wdg=2 bus=node_414100277.1.2.3.4 conn=wye Kv=0.2200 Kva=75.0 %R=0.670
New Transformer.325955181_326789728 phases=3 windings=2 Xhl=3.770
~ wdg=1 bus=node_426622401.1.2.3 conn=delta Kv=13.8 Kva=75.0 %R=0.670
~ wdg=2 bus=node_414124366.1.2.3.4 conn=wye Kv=0.2200 Kva=75.0 %R=0.670
New Transformer.325955969_326766997 phases=3 windings=2 Xhl=3.770
~ wdg=1 bus=node_426948127.1.2.3 conn=delta Kv=13.8 Kva=75.0 %R=0.670
~ wdg=2 bus=node_403578887.1.2.3.4 conn=wye Kv=0.2200 Kva=75.0 %R=0.670
New Transformer.325956284_326767273 phases=3 windings=2 Xhl=3.770
~ wdg=1 bus=node_428277413.1.2.3 conn=delta Kv=13.8 Kva=75.0 %R=0.670
~ wdg=2 bus=node_414100343.1.2.3.4 conn=wye Kv=0.2200 Kva=75.0 %R=0.670
New Transformer.325956568_326745687 phases=3 windings=2 Xhl=3.770
~ wdg=1 bus=node_426797482.1.2.3 conn=delta Kv=13.8 Kva=75.0 %R=0.670
~ wdg=2 bus=node_403649112.1.2.3.4 conn=wye Kv=0.2200 Kva=75.0 %R=0.670
New Transformer.325957042_326747411 phases=3 windings=2 Xhl=3.770
~ wdg=1 bus=node_427790355.1.2.3 conn=delta Kv=13.8 Kva=75.0 %R=0.670
~ wdg=2 bus=node_405227889.1.2.3.4 conn=wye Kv=0.2200 Kva=75.0 %R=0.670
New Transformer.325957178_1535986826 phases=3 windings=2 Xhl=3.770
~ wdg=1 bus=node_426462503.1.2.3 conn=delta Kv=13.8 Kva=75.0 %R=0.670
~ wdg=2 bus=node_416119885.1.2.3.4 conn=wye Kv=0.2200 Kva=75.0 %R=0.670
New Transformer.325957371_1535986847 phases=3 windings=2 Xhl=3.770
~ wdg=1 bus=node_426461484.1.2.3 conn=delta Kv=13.8 Kva=75.0 %R=0.670
~ wdg=2 bus=node_416120134.1.2.3.4 conn=wye Kv=0.2200 Kva=75.0 %R=0.670
New Transformer.325957337_326744555 phases=3 windings=2 Xhl=3.770
~ wdg=1 bus=node_430540062.1.2.3 conn=delta Kv=13.8 Kva=75.0 %R=0.670
~ wdg=2 bus=node_414098786.1.2.3.4 conn=wye Kv=0.2200 Kva=75.0 %R=0.670
New Transformer.325957312_1676510714 phases=3 windings=2 Xhl=3.770
~ wdg=1 bus=node_1883451537.1.2.3 conn=delta Kv=13.8 Kva=75.0 %R=0.670
~ wdg=2 bus=node_418746468.1.2.3.4 conn=wye Kv=0.2200 Kva=75.0 %R=0.670
New Transformer.325957479_326707008 phases=3 windings=2 Xhl=3.770
~ wdg=1 bus=node_426459739.1.2.3 conn=delta Kv=13.8 Kva=75.0 %R=0.670
~ wdg=2 bus=node_415927476.1.2.3.4 conn=wye Kv=0.2200 Kva=75.0 %R=0.670
New Transformer.325957481_326745912 phases=3 windings=2 Xhl=3.770
~ wdg=1 bus=node_444746733.1.2.3 conn=delta Kv=13.8 Kva=75.0 %R=0.670
~ wdg=2 bus=node_414097679.1.2.3.4 conn=wye Kv=0.2200 Kva=75.0 %R=0.670
New Transformer.1080937358_1080937357 phases=3 windings=2 Xhl=3.770
~ wdg=1 bus=node_1348234664.1.2.3 conn=delta Kv=13.8 Kva=75.0 %R=0.670
~ wdg=2 bus=node_1348234574.1.2.3.4 conn=wye Kv=0.2200 Kva=75.0 %R=0.670
New Transformer.325523643_1829776518 phases=3 windings=2 Xhl=3.770
~ wdg=1 bus=node_2197635126.1.2.3 conn=delta Kv=13.8 Kva=75.0 %R=0.670
~ wdg=2 bus=node_2197635210.1.2.3.4 conn=wye Kv=0.2200 Kva=75.0 %R=0.670
New Transformer.325523273_1535986850 phases=3 windings=2 Xhl=3.770
~ wdg=1 bus=node_426624309.1.2.3 conn=delta Kv=13.8 Kva=75.0 %R=0.670
~ wdg=2 bus=node_416119783.1.2.3.4 conn=wye Kv=0.2200 Kva=75.0 %R=0.670
New Transformer.326255474_326767836 phases=3 windings=2 Xhl=3.770
~ wdg=1 bus=node_428276395.1.2.3 conn=delta Kv=13.8 Kva=75.0 %R=0.670
~ wdg=2 bus=node_415929429.1.2.3.4 conn=wye Kv=0.2200 Kva=75.0 %R=0.670
New Transformer.326254011_326767277 phases=3 windings=2 Xhl=3.770
~ wdg=1 bus=node_426622921.1.2.3 conn=delta Kv=13.8 Kva=75.0 %R=0.670
~ wdg=2 bus=node_414123679.1.2.3.4 conn=wye Kv=0.2200 Kva=75.0 %R=0.670
New Transformer.326254499_1119943905 phases=3 windings=2 Xhl=3.770
~ wdg=1 bus=node_437026289.1.2.3 conn=delta Kv=13.8 Kva=75.0 %R=0.670
~ wdg=2 bus=node_414100400.1.2.3.4 conn=wye Kv=0.2200 Kva=75.0 %R=0.670
New Transformer.326255947_326746211 phases=3 windings=2 Xhl=3.770
~ wdg=1 bus=node_426462383.1.2.3 conn=delta Kv=13.8 Kva=75.0 %R=0.670
~ wdg=2 bus=node_416039081.1.2.3.4 conn=wye Kv=0.2200 Kva=75.0 %R=0.670
New Transformer.326254796_326767280 phases=3 windings=2 Xhl=3.770
~ wdg=1 bus=node_428277283.1.2.3 conn=delta Kv=13.8 Kva=75.0 %R=0.670
~ wdg=2 bus=node_414099065.1.2.3.4 conn=wye Kv=0.2200 Kva=75.0 %R=0.670
New Transformer.326255742_326746510 phases=3 windings=2 Xhl=3.770
~ wdg=1 bus=node_430711869.1.2.3 conn=delta Kv=13.8 Kva=75.0 %R=0.670
~ wdg=2 bus=node_414122389.1.2.3.4 conn=wye Kv=0.2200 Kva=75.0 %R=0.670
New Transformer.326254934_2227465267 phases=3 windings=2 Xhl=3.770
~ wdg=1 bus=node_428921485.1.2.3 conn=delta Kv=13.8 Kva=75.0 %R=0.670
~ wdg=2 bus=node_406618999.1.2.3.4 conn=wye Kv=0.2200 Kva=75.0 %R=0.670
New Transformer.1129485265_1998960056 phases=3 windings=2 Xhl=3.770
~ wdg=1 bus=node_1398968149.1.2.3 conn=delta Kv=13.8 Kva=75.0 %R=0.670
~ wdg=2 bus=node_1398968165.1.2.3.4 conn=wye Kv=0.2200 Kva=75.0 %R=0.670
New Transformer.326257209_326744519 phases=3 windings=2 Xhl=3.770
~ wdg=1 bus=node_426624364.1.2.3 conn=delta Kv=13.8 Kva=75.0 %R=0.670
~ wdg=2 bus=node_414123412.1.2.3.4 conn=wye Kv=0.2200 Kva=75.0 %R=0.670
New Transformer.326257216_326723181 phases=3 windings=2 Xhl=3.770
~ wdg=1 bus=node_426948876.1.2.3 conn=delta Kv=13.8 Kva=75.0 %R=0.670
~ wdg=2 bus=node_403579097.1.2.3.4 conn=wye Kv=0.2200 Kva=75.0 %R=0.670
New Transformer.326255426_326744529 phases=3 windings=2 Xhl=3.770
~ wdg=1 bus=node_427792813.1.2.3 conn=delta Kv=13.8 Kva=75.0 %R=0.670
~ wdg=2 bus=node_414099962.1.2.3.4 conn=wye Kv=0.2200 Kva=75.0 %R=0.670
New Transformer.326256592_1621534632 phases=3 windings=2 Xhl=3.770
~ wdg=1 bus=node_434637409.1.2.3 conn=delta Kv=13.8 Kva=75.0 %R=0.670
~ wdg=2 bus=node_419185515.1.2.3.4 conn=wye Kv=0.2200 Kva=75.0 %R=0.670
New Transformer.1181270831_1181270830 phases=3 windings=2 Xhl=3.770
~ wdg=1 bus=node_1803120315.1.2.3 conn=delta Kv=13.8 Kva=75.0 %R=0.670
~ wdg=2 bus=node_1803119791.1.2.3.4 conn=wye Kv=0.2200 Kva=75.0 %R=0.670
New Transformer.326256615_326766987 phases=3 windings=2 Xhl=3.770
~ wdg=1 bus=node_444294518.1.2.3 conn=delta Kv=13.8 Kva=75.0 %R=0.670
~ wdg=2 bus=node_403579133.1.2.3.4 conn=wye Kv=0.2200 Kva=75.0 %R=0.670
New Transformer.326257594_326707160 phases=3 windings=2 Xhl=3.770
~ wdg=1 bus=node_427793793.1.2.3 conn=delta Kv=13.8 Kva=75.0 %R=0.670
~ wdg=2 bus=node_415854333.1.2.3.4 conn=wye Kv=0.2200 Kva=75.0 %R=0.670
New Transformer.326257530_326705274 phases=3 windings=2 Xhl=3.770
~ wdg=1 bus=node_426621861.1.2.3 conn=delta Kv=13.8 Kva=75.0 %R=0.670
~ wdg=2 bus=node_414100376.1.2.3.4 conn=wye Kv=0.2200 Kva=75.0 %R=0.670
New Transformer.326257552_326787107 phases=3 windings=2 Xhl=3.770
~ wdg=1 bus=node_426621851.1.2.3 conn=delta Kv=13.8 Kva=75.0 %R=0.670
~ wdg=2 bus=node_414099071.1.2.3.4 conn=wye Kv=0.2200 Kva=75.0 %R=0.670
New Transformer.950173095_950173096 phases=3 windings=2 Xhl=3.770
~ wdg=1 bus=node_1212897998.1.2.3 conn=delta Kv=13.8 Kva=75.0 %R=0.670
~ wdg=2 bus=node_1212897125.1.2.3.4 conn=wye Kv=0.2200 Kva=75.0 %R=0.670
New Transformer.950173119_950173120 phases=3 windings=2 Xhl=3.770
~ wdg=1 bus=node_1212898166.1.2.3 conn=delta Kv=13.8 Kva=75.0 %R=0.670
~ wdg=2 bus=node_1212897227.1.2.3.4 conn=wye Kv=0.2200 Kva=75.0 %R=0.670
New Transformer.950173153_950173154 phases=3 windings=2 Xhl=3.770
~ wdg=1 bus=node_1212897997.1.2.3 conn=delta Kv=13.8 Kva=75.0 %R=0.670
~ wdg=2 bus=node_406529990.1.2.3.4 conn=wye Kv=0.2200 Kva=75.0 %R=0.670
New Transformer.950173166_950173167 phases=3 windings=2 Xhl=3.770
~ wdg=1 bus=node_1212897782.1.2.3 conn=delta Kv=13.8 Kva=75.0 %R=0.670
~ wdg=2 bus=node_1212897408.1.2.3.4 conn=wye Kv=0.2200 Kva=75.0 %R=0.670
New Transformer.1419785505_1419785504 phases=3 windings=2 Xhl=3.770
~ wdg=1 bus=node_1716505165.1.2.3 conn=delta Kv=13.8 Kva=75.0 %R=0.670
~ wdg=2 bus=node_460161958.1.2.3.4 conn=wye Kv=0.2200 Kva=75.0 %R=0.670
New Transformer.1677859039_1677859053 phases=3 windings=2 Xhl=3.770
~ wdg=1 bus=node_2001583730.1.2.3 conn=delta Kv=13.8 Kva=75.0 %R=0.670
~ wdg=2 bus=node_2001583737.1.2.3.4 conn=wye Kv=0.2200 Kva=75.0 %R=0.670
New Transformer.972612579_972612578 phases=3 windings=2 Xhl=3.770
~ wdg=1 bus=node_1234791379.1.2.3 conn=delta Kv=13.8 Kva=75.0 %R=0.670
~ wdg=2 bus=node_1234791384.1.2.3.4 conn=wye Kv=0.2200 Kva=75.0 %R=0.670
New Transformer.1693751231_1693751230 phases=3 windings=2 Xhl=3.770
~ wdg=1 bus=node_2019515589.1.2.3 conn=delta Kv=13.8 Kva=75.0 %R=0.670
~ wdg=2 bus=node_2019515528.1.2.3.4 conn=wye Kv=0.2200 Kva=75.0 %R=0.670
New Transformer.1474473798_1474473805 phases=3 windings=2 Xhl=3.770
~ wdg=1 bus=node_1781580710.1.2.3 conn=delta Kv=13.8 Kva=75.0 %R=0.670
~ wdg=2 bus=node_1781580796.1.2.3.4 conn=wye Kv=0.2200 Kva=75.0 %R=0.670
New Transformer.1378318848_1378318847 phases=3 windings=2 Xhl=3.770
~ wdg=1 bus=node_1673068264.1.2.3 conn=delta Kv=13.8 Kva=75.0 %R=0.670
~ wdg=2 bus=node_1673068457.1.2.3.4 conn=wye Kv=0.2200 Kva=75.0 %R=0.670
New Transformer.1378319075_1378319074 phases=3 windings=2 Xhl=3.770
~ wdg=1 bus=node_1855373625.1.2.3 conn=delta Kv=13.8 Kva=75.0 %R=0.670
~ wdg=2 bus=node_1673068840.1.2.3.4 conn=wye Kv=0.2200 Kva=75.0 %R=0.670
New Transformer.1378319245_1378319244 phases=3 windings=2 Xhl=3.770
~ wdg=1 bus=node_1673067992.1.2.3 conn=delta Kv=13.8 Kva=75.0 %R=0.670
~ wdg=2 bus=node_1673068324.1.2.3.4 conn=wye Kv=0.2200 Kva=75.0 %R=0.670
New Transformer.359727600_359916994 phases=3 windings=2 Xhl=3.770
~ wdg=1 bus=node_426909325.1.2.3 conn=delta Kv=13.8 Kva=75.0 %R=0.670
~ wdg=2 bus=node_414123160.1.2.3.4 conn=wye Kv=0.2200 Kva=75.0 %R=0.670
New Transformer.1389027505_1389027504 phases=3 windings=2 Xhl=3.770
~ wdg=1 bus=node_427072817.1.2.3 conn=delta Kv=13.8 Kva=75.0 %R=0.670
~ wdg=2 bus=node_414123499.1.2.3.4 conn=wye Kv=0.2200 Kva=75.0 %R=0.670
New Transformer.326521216_326787113 phases=3 windings=2 Xhl=3.770
~ wdg=1 bus=node_428275636.1.2.3 conn=delta Kv=13.8 Kva=75.0 %R=0.670
~ wdg=2 bus=node_414099047.1.2.3.4 conn=wye Kv=0.2200 Kva=75.0 %R=0.670
New Transformer.1497433940_1497433941 phases=3 windings=2 Xhl=3.770
~ wdg=1 bus=node_436693675.1.2.3 conn=delta Kv=13.8 Kva=75.0 %R=0.670
~ wdg=2 bus=node_406197842.1.2.3.4 conn=wye Kv=0.2200 Kva=75.0 %R=0.670
New Transformer.359728191_359811050 phases=3 windings=2 Xhl=3.770
~ wdg=1 bus=node_427072792.1.2.3 conn=delta Kv=13.8 Kva=75.0 %R=0.670
~ wdg=2 bus=node_414123355.1.2.3.4 conn=wye Kv=0.2200 Kva=75.0 %R=0.670
New Transformer.326522111_326766986 phases=3 windings=2 Xhl=3.770
~ wdg=1 bus=node_426948362.1.2.3 conn=delta Kv=13.8 Kva=75.0 %R=0.670
~ wdg=2 bus=node_403579361.1.2.3.4 conn=wye Kv=0.2200 Kva=75.0 %R=0.670
New Transformer.1767582463_1767582464 phases=3 windings=2 Xhl=3.770
~ wdg=1 bus=node_2092935231.1.2.3 conn=delta Kv=13.8 Kva=75.0 %R=0.670
~ wdg=2 bus=node_2092935411.1.2.3.4 conn=wye Kv=0.2200 Kva=75.0 %R=0.670
New Transformer.326523182_326789734 phases=3 windings=2 Xhl=3.770
~ wdg=1 bus=node_437026685.1.2.3 conn=delta Kv=13.8 Kva=75.0 %R=0.670
~ wdg=2 bus=node_414100436.1.2.3.4 conn=wye Kv=0.2200 Kva=75.0 %R=0.670
New Transformer.586152509_1965952179 phases=3 windings=2 Xhl=3.770
~ wdg=1 bus=node_854536113.1.2.3 conn=delta Kv=13.8 Kva=75.0 %R=0.670
~ wdg=2 bus=node_854536151.1.2.3.4 conn=wye Kv=0.2200 Kva=75.0 %R=0.670
New Transformer.326105100_326723239 phases=3 windings=2 Xhl=3.770
~ wdg=1 bus=node_444293371.1.2.3 conn=delta Kv=13.8 Kva=75.0 %R=0.670
~ wdg=2 bus=node_471732151.1.2.3.4 conn=wye Kv=0.2200 Kva=75.0 %R=0.670
New Transformer.326103790_571548576 phases=3 windings=2 Xhl=3.770
~ wdg=1 bus=node_435288016.1.2.3 conn=delta Kv=13.8 Kva=75.0 %R=0.670
~ wdg=2 bus=node_403649937.1.2.3.4 conn=wye Kv=0.2200 Kva=75.0 %R=0.670
New Transformer.326103864_2710995575 phases=3 windings=2 Xhl=3.770
~ wdg=1 bus=node_427790325.1.2.3 conn=delta Kv=13.8 Kva=75.0 %R=0.670
~ wdg=2 bus=node_405225642.1.2.3.4 conn=wye Kv=0.2200 Kva=75.0 %R=0.670
New Transformer.326106649_326786849 phases=3 windings=2 Xhl=3.770
~ wdg=1 bus=node_426948212.1.2.3 conn=delta Kv=13.8 Kva=75.0 %R=0.670
~ wdg=2 bus=node_403649922.1.2.3.4 conn=wye Kv=0.2200 Kva=75.0 %R=0.670
New Transformer.326106467_326766998 phases=3 windings=2 Xhl=3.770
~ wdg=1 bus=node_426297259.1.2.3 conn=delta Kv=13.8 Kva=75.0 %R=0.670
~ wdg=2 bus=node_403727291.1.2.3.4 conn=wye Kv=0.2200 Kva=75.0 %R=0.670
New Transformer.326106266_326745689 phases=3 windings=2 Xhl=3.770
~ wdg=1 bus=node_426297344.1.2.3 conn=delta Kv=13.8 Kva=75.0 %R=0.670
~ wdg=2 bus=node_403727741.1.2.3.4 conn=wye Kv=0.2200 Kva=75.0 %R=0.670
New Transformer.326107292_326745861 phases=3 windings=2 Xhl=3.770
~ wdg=1 bus=node_426623069.1.2.3 conn=delta Kv=13.8 Kva=75.0 %R=0.670
~ wdg=2 bus=node_414122368.1.2.3.4 conn=wye Kv=0.2200 Kva=75.0 %R=0.670
New Transformer.326107276_326745868 phases=3 windings=2 Xhl=3.770
~ wdg=1 bus=node_437026310.1.2.3 conn=delta Kv=13.8 Kva=75.0 %R=0.670
~ wdg=2 bus=node_414121957.1.2.3.4 conn=wye Kv=0.2200 Kva=75.0 %R=0.670
New Transformer.2599846243_2599846242 phases=3 windings=2 Xhl=3.770
~ wdg=1 bus=node_2753100134.1.2.3 conn=delta Kv=13.8 Kva=75.0 %R=0.670
~ wdg=2 bus=node_414145130.1.2.3.4 conn=wye Kv=0.2200 Kva=75.0 %R=0.670
New Transformer.2672409763_2672409771 phases=3 windings=2 Xhl=3.770
~ wdg=1 bus=node_2844526449.1.2.3 conn=delta Kv=13.8 Kva=75.0 %R=0.670
~ wdg=2 bus=node_2844526388.1.2.3.4 conn=wye Kv=0.2200 Kva=75.0 %R=0.670
New Transformer.326382773_326708020 phases=3 windings=2 Xhl=3.700
~ wdg=1 bus=node_2228011029.1.2.3 conn=delta Kv=13.8 Kva=45.0 %R=0.760
~ wdg=2 bus=node_405304307.1.2.3.4 conn=wye Kv=0.2200 Kva=45.0 %R=0.760
New Transformer.326382704_582536922 phases=3 windings=2 Xhl=3.700
~ wdg=1 bus=node_430538803.1.2.3 conn=delta Kv=13.8 Kva=45.0 %R=0.760
~ wdg=2 bus=node_414099377.1.2.3.4 conn=wye Kv=0.2200 Kva=45.0 %R=0.760
New Transformer.326383112_326789733 phases=3 windings=2 Xhl=3.700
~ wdg=1 bus=node_437026319.1.2.3 conn=delta Kv=13.8 Kva=45.0 %R=0.760
~ wdg=2 bus=node_414100172.1.2.3.4 conn=wye Kv=0.2200 Kva=45.0 %R=0.760
New Transformer.326382834_326721968 phases=3 windings=2 Xhl=3.700
~ wdg=1 bus=node_427790495.1.2.3 conn=delta Kv=13.8 Kva=45.0 %R=0.760
~ wdg=2 bus=node_403728134.1.2.3.4 conn=wye Kv=0.2200 Kva=45.0 %R=0.760
New Transformer.326383050_326765051 phases=3 windings=2 Xhl=3.700
~ wdg=1 bus=node_1212897868.1.2.3 conn=delta Kv=13.8 Kva=45.0 %R=0.760
~ wdg=2 bus=node_1212897016.1.2.3.4 conn=wye Kv=0.2200 Kva=45.0 %R=0.760
New Transformer.326382996_1830798428 phases=3 windings=2 Xhl=3.700
~ wdg=1 bus=node_430711084.1.2.3 conn=delta Kv=13.8 Kva=45.0 %R=0.760
~ wdg=2 bus=node_415890070.1.2.3.4 conn=wye Kv=0.2200 Kva=45.0 %R=0.760
New Transformer.326383550_1535986832 phases=3 windings=2 Xhl=3.700
~ wdg=1 bus=node_426461354.1.2.3 conn=delta Kv=13.8 Kva=45.0 %R=0.760
~ wdg=2 bus=node_416119894.1.2.3.4 conn=wye Kv=0.2200 Kva=45.0 %R=0.760
New Transformer.326383198_326789731 phases=3 windings=2 Xhl=3.700
~ wdg=1 bus=node_426622691.1.2.3 conn=delta Kv=13.8 Kva=45.0 %R=0.760
~ wdg=2 bus=node_414122347.1.2.3.4 conn=wye Kv=0.2200 Kva=45.0 %R=0.760
New Transformer.326383201_326744521 phases=3 windings=2 Xhl=3.700
~ wdg=1 bus=node_426622826.1.2.3 conn=delta Kv=13.8 Kva=45.0 %R=0.760
~ wdg=2 bus=node_414123361.1.2.3.4 conn=wye Kv=0.2200 Kva=45.0 %R=0.760
New Transformer.326384022_326746240 phases=3 windings=2 Xhl=3.700
~ wdg=1 bus=node_426623060.1.2.3 conn=delta Kv=13.8 Kva=45.0 %R=0.760
~ wdg=2 bus=node_415999005.1.2.3.4 conn=wye Kv=0.2200 Kva=45.0 %R=0.760
New Transformer.326384415_2636281901 phases=3 windings=2 Xhl=3.700
~ wdg=1 bus=node_437026230.1.2.3 conn=delta Kv=13.8 Kva=45.0 %R=0.760
~ wdg=2 bus=node_414100406.1.2.3.4 conn=wye Kv=0.2200 Kva=45.0 %R=0.760
New Transformer.326384455_326705011 phases=3 windings=2 Xhl=3.700
~ wdg=1 bus=node_427790284.1.2.3 conn=delta Kv=13.8 Kva=45.0 %R=0.760
~ wdg=2 bus=node_403579124.1.2.3.4 conn=wye Kv=0.2200 Kva=45.0 %R=0.760
New Transformer.326384628_980320365 phases=3 windings=2 Xhl=3.700
~ wdg=1 bus=node_426948627.1.2.3 conn=delta Kv=13.8 Kva=45.0 %R=0.760
~ wdg=2 bus=node_403579388.1.2.3.4 conn=wye Kv=0.2200 Kva=45.0 %R=0.760
New Transformer.326384668_326747413 phases=3 windings=2 Xhl=3.700
~ wdg=1 bus=node_427793713.1.2.3 conn=delta Kv=13.8 Kva=45.0 %R=0.760
~ wdg=2 bus=node_414981928.1.2.3.4 conn=wye Kv=0.2200 Kva=45.0 %R=0.760
New Transformer.326384992_326746516 phases=3 windings=2 Xhl=3.700
~ wdg=1 bus=node_428276594.1.2.3 conn=delta Kv=13.8 Kva=45.0 %R=0.760
~ wdg=2 bus=node_414097016.1.2.3.4 conn=wye Kv=0.2200 Kva=45.0 %R=0.760
New Transformer.326385531_326789608 phases=3 windings=2 Xhl=3.700
~ wdg=1 bus=node_444294155.1.2.3 conn=delta Kv=13.8 Kva=45.0 %R=0.760
~ wdg=2 bus=node_403649061.1.2.3.4 conn=wye Kv=0.2200 Kva=45.0 %R=0.760
New Transformer.326385726_326723186 phases=3 windings=2 Xhl=3.700
~ wdg=1 bus=node_426948412.1.2.3 conn=delta Kv=13.8 Kva=45.0 %R=0.760
~ wdg=2 bus=node_403649037.1.2.3.4 conn=wye Kv=0.2200 Kva=45.0 %R=0.760
New Transformer.326385974_2721234427 phases=3 windings=2 Xhl=4.960
~ wdg=1 bus=node_2494415546.1.2.3 conn=delta Kv=13.8 Kva=45.0 %R=0.305
~ wdg=2 bus=node_2494415548.1.2.3.4 conn=wye Kv=0.2200 Kva=45.0 %R=0.305
New Transformer.326386260_1586469828 phases=3 windings=2 Xhl=3.700
~ wdg=1 bus=node_426296489.1.2.3 conn=delta Kv=13.8 Kva=45.0 %R=0.760
~ wdg=2 bus=node_403579025.1.2.3.4 conn=wye Kv=0.2200 Kva=45.0 %R=0.760
New Transformer.326386062_1623617277 phases=3 windings=2 Xhl=3.700
~ wdg=1 bus=node_428922105.1.2.3 conn=delta Kv=13.8 Kva=45.0 %R=0.760
~ wdg=2 bus=node_414099257.1.2.3.4 conn=wye Kv=0.2200 Kva=45.0 %R=0.760
New Transformer.326386244_326745693 phases=3 windings=2 Xhl=3.700
~ wdg=1 bus=node_426948912.1.2.3 conn=delta Kv=13.8 Kva=45.0 %R=0.760
~ wdg=2 bus=node_403578854.1.2.3.4 conn=wye Kv=0.2200 Kva=45.0 %R=0.760
New Transformer.326386240_326705551 phases=3 windings=2 Xhl=3.700
~ wdg=1 bus=node_426948542.1.2.3 conn=delta Kv=13.8 Kva=45.0 %R=0.760
~ wdg=2 bus=node_406720659.1.2.3.4 conn=wye Kv=0.2200 Kva=45.0 %R=0.760
New Transformer.326386685_326767575 phases=3 windings=2 Xhl=3.700
~ wdg=1 bus=node_426459435.1.2.3 conn=delta Kv=13.8 Kva=45.0 %R=0.760
~ wdg=2 bus=node_415999011.1.2.3.4 conn=wye Kv=0.2200 Kva=45.0 %R=0.760
New Transformer.326386276_326767274 phases=3 windings=2 Xhl=3.700
~ wdg=1 bus=node_437026190.1.2.3 conn=delta Kv=13.8 Kva=45.0 %R=0.760
~ wdg=2 bus=node_414099191.1.2.3.4 conn=wye Kv=0.2200 Kva=45.0 %R=0.760
New Transformer.325953421_326721928 phases=3 windings=2 Xhl=3.700
~ wdg=1 bus=node_444294909.1.2.3 conn=delta Kv=13.8 Kva=45.0 %R=0.760
~ wdg=2 bus=node_403579322.1.2.3.4 conn=wye Kv=0.2200 Kva=45.0 %R=0.760
New Transformer.325953487_326706893 phases=3 windings=2 Xhl=3.700
~ wdg=1 bus=node_426622456.1.2.3 conn=delta Kv=13.8 Kva=45.0 %R=0.760
~ wdg=2 bus=node_415961182.1.2.3.4 conn=wye Kv=0.2200 Kva=45.0 %R=0.760
New Transformer.325953708_326744386 phases=3 windings=2 Xhl=3.700
~ wdg=1 bus=node_426794738.1.2.3 conn=delta Kv=13.8 Kva=45.0 %R=0.760
~ wdg=2 bus=node_403651038.1.2.3.4 conn=wye Kv=0.2200 Kva=45.0 %R=0.760
New Transformer.325953755_326707965 phases=3 windings=2 Xhl=3.700
~ wdg=1 bus=node_430537998.1.2.3 conn=delta Kv=13.8 Kva=45.0 %R=0.760
~ wdg=2 bus=node_415015349.1.2.3.4 conn=wye Kv=0.2200 Kva=45.0 %R=0.760
New Transformer.325953762_326705550 phases=3 windings=2 Xhl=3.700
~ wdg=1 bus=node_426623670.1.2.3 conn=delta Kv=13.8 Kva=45.0 %R=0.760
~ wdg=2 bus=node_415999014.1.2.3.4 conn=wye Kv=0.2200 Kva=45.0 %R=0.760
New Transformer.325954308_326764931 phases=3 windings=2 Xhl=3.700
~ wdg=1 bus=node_430712483.1.2.3 conn=delta Kv=13.8 Kva=45.0 %R=0.760
~ wdg=2 bus=node_415959955.1.2.3.4 conn=wye Kv=0.2200 Kva=45.0 %R=0.760
New Transformer.325954526_1535986856 phases=3 windings=2 Xhl=3.700
~ wdg=1 bus=node_426461464.1.2.3 conn=delta Kv=13.8 Kva=45.0 %R=0.760
~ wdg=2 bus=node_416120215.1.2.3.4 conn=wye Kv=0.2200 Kva=45.0 %R=0.760
New Transformer.325954411_326721929 phases=3 windings=2 Xhl=3.700
~ wdg=1 bus=node_426948587.1.2.3 conn=delta Kv=13.8 Kva=45.0 %R=0.760
~ wdg=2 bus=node_403579367.1.2.3.4 conn=wye Kv=0.2200 Kva=45.0 %R=0.760
New Transformer.325954672_326705500 phases=3 windings=2 Xhl=3.700
~ wdg=1 bus=node_426462148.1.2.3 conn=delta Kv=13.8 Kva=45.0 %R=0.760
~ wdg=2 bus=node_416039801.1.2.3.4 conn=wye Kv=0.2200 Kva=45.0 %R=0.760
New Transformer.325954705_326723342 phases=3 windings=2 Xhl=3.700
~ wdg=1 bus=node_444746728.1.2.3 conn=delta Kv=13.8 Kva=45.0 %R=0.760
~ wdg=2 bus=node_414100193.1.2.3.4 conn=wye Kv=0.2200 Kva=45.0 %R=0.760
New Transformer.325954713_326746250 phases=3 windings=2 Xhl=3.700
~ wdg=1 bus=node_426621971.1.2.3 conn=delta Kv=13.8 Kva=45.0 %R=0.760
~ wdg=2 bus=node_415962478.1.2.3.4 conn=wye Kv=0.2200 Kva=45.0 %R=0.760
New Transformer.325954714_1415839279 phases=3 windings=2 Xhl=3.700
~ wdg=1 bus=node_426950800.1.2.3 conn=delta Kv=13.8 Kva=45.0 %R=0.760
~ wdg=2 bus=node_1747628159.1.2.3.4 conn=wye Kv=0.2200 Kva=45.0 %R=0.760
New Transformer.325954694_326725051 phases=3 windings=2 Xhl=3.700
~ wdg=1 bus=node_426462123.1.2.3 conn=delta Kv=13.8 Kva=45.0 %R=0.760
~ wdg=2 bus=node_416039441.1.2.3.4 conn=wye Kv=0.2200 Kva=45.0 %R=0.760
New Transformer.325954884_326788372 phases=3 windings=2 Xhl=3.700
~ wdg=1 bus=node_427793493.1.2.3 conn=delta Kv=13.8 Kva=45.0 %R=0.760
~ wdg=2 bus=node_415432568.1.2.3.4 conn=wye Kv=0.2200 Kva=45.0 %R=0.760
New Transformer.325954744_326705271 phases=3 windings=2 Xhl=3.700
~ wdg=1 bus=node_426462168.1.2.3 conn=delta Kv=13.8 Kva=45.0 %R=0.760
~ wdg=2 bus=node_414097691.1.2.3.4 conn=wye Kv=0.2200 Kva=45.0 %R=0.760
New Transformer.325955229_488841842 phases=3 windings=2 Xhl=3.700
~ wdg=1 bus=node_437028280.1.2.3 conn=delta Kv=13.8 Kva=45.0 %R=0.760
~ wdg=2 bus=node_414100469.1.2.3.4 conn=wye Kv=0.2200 Kva=45.0 %R=0.760
New Transformer.325955376_326745850 phases=3 windings=2 Xhl=3.700
~ wdg=1 bus=node_428107153.1.2.3 conn=delta Kv=13.8 Kva=45.0 %R=0.760
~ wdg=2 bus=node_414098789.1.2.3.4 conn=wye Kv=0.2200 Kva=45.0 %R=0.760
New Transformer.325955209_326705046 phases=3 windings=2 Xhl=3.700
~ wdg=1 bus=node_435112342.1.2.3 conn=delta Kv=13.8 Kva=45.0 %R=0.760
~ wdg=2 bus=node_414123127.1.2.3.4 conn=wye Kv=0.2200 Kva=45.0 %R=0.760
New Transformer.325955659_1915059599 phases=3 windings=2 Xhl=3.700
~ wdg=1 bus=node_427790279.1.2.3 conn=delta Kv=13.8 Kva=45.0 %R=0.760
~ wdg=2 bus=node_405225447.1.2.3.4 conn=wye Kv=0.2200 Kva=45.0 %R=0.760
New Transformer.325955862_326706876 phases=3 windings=2 Xhl=3.700
~ wdg=1 bus=node_426623065.1.2.3 conn=delta Kv=13.8 Kva=45.0 %R=0.760
~ wdg=2 bus=node_415999527.1.2.3.4 conn=wye Kv=0.2200 Kva=45.0 %R=0.760
New Transformer.325956587_326787423 phases=3 windings=2 Xhl=3.700
~ wdg=1 bus=node_426948372.1.2.3 conn=delta Kv=13.8 Kva=45.0 %R=0.760
~ wdg=2 bus=node_406720497.1.2.3.4 conn=wye Kv=0.2200 Kva=45.0 %R=0.760
New Transformer.325956603_1535986838 phases=3 windings=2 Xhl=3.700
~ wdg=1 bus=node_426461488.1.2.3 conn=delta Kv=13.8 Kva=45.0 %R=0.760
~ wdg=2 bus=node_416120065.1.2.3.4 conn=wye Kv=0.2200 Kva=45.0 %R=0.760
New Transformer.325956615_326786854 phases=3 windings=2 Xhl=3.700
~ wdg=1 bus=node_426948147.1.2.3 conn=delta Kv=13.8 Kva=45.0 %R=0.760
~ wdg=2 bus=node_403650048.1.2.3.4 conn=wye Kv=0.2200 Kva=45.0 %R=0.760
New Transformer.325956833_326789600 phases=3 windings=2 Xhl=3.700
~ wdg=1 bus=node_426949077.1.2.3 conn=delta Kv=13.8 Kva=45.0 %R=0.760
~ wdg=2 bus=node_403580051.1.2.3.4 conn=wye Kv=0.2200 Kva=45.0 %R=0.760
New Transformer.597578897_597578896 phases=3 windings=2 Xhl=3.700
~ wdg=1 bus=node_865756380.1.2.3 conn=delta Kv=13.8 Kva=45.0 %R=0.760
~ wdg=2 bus=node_865756404.1.2.3.4 conn=wye Kv=0.2200 Kva=45.0 %R=0.760
New Transformer.325523410_326747616 phases=3 windings=2 Xhl=3.700
~ wdg=1 bus=node_428276539.1.2.3 conn=delta Kv=13.8 Kva=45.0 %R=0.760
~ wdg=2 bus=node_416038136.1.2.3.4 conn=wye Kv=0.2200 Kva=45.0 %R=0.760
New Transformer.325957468_326767052 phases=3 windings=2 Xhl=3.700
~ wdg=1 bus=node_427793353.1.2.3 conn=delta Kv=13.8 Kva=45.0 %R=0.760
~ wdg=2 bus=node_414123904.1.2.3.4 conn=wye Kv=0.2200 Kva=45.0 %R=0.760
New Transformer.325957436_326787106 phases=3 windings=2 Xhl=3.700
~ wdg=1 bus=node_437026219.1.2.3 conn=delta Kv=13.8 Kva=45.0 %R=0.760
~ wdg=2 bus=node_414100403.1.2.3.4 conn=wye Kv=0.2200 Kva=45.0 %R=0.760
New Transformer.325523708_326766990 phases=3 windings=2 Xhl=3.700
~ wdg=1 bus=node_444293406.1.2.3 conn=delta Kv=13.8 Kva=45.0 %R=0.760
~ wdg=2 bus=node_403651026.1.2.3.4 conn=wye Kv=0.2200 Kva=45.0 %R=0.760
New Transformer.359776538_359811053 phases=3 windings=2 Xhl=3.700
~ wdg=1 bus=node_427072771.1.2.3 conn=delta Kv=13.8 Kva=45.0 %R=0.760
~ wdg=2 bus=node_414100424.1.2.3.4 conn=wye Kv=0.2200 Kva=45.0 %R=0.760
New Transformer.359776063_1298995116 phases=3 windings=2 Xhl=3.700
~ wdg=1 bus=node_427072862.1.2.3 conn=delta Kv=13.8 Kva=45.0 %R=0.760
~ wdg=2 bus=node_414121972.1.2.3.4 conn=wye Kv=0.2200 Kva=45.0 %R=0.760
New Transformer.2432735938_2432735943 phases=3 windings=2 Xhl=3.700
~ wdg=1 bus=node_2604826808.1.2.3 conn=delta Kv=13.8 Kva=45.0 %R=0.760
~ wdg=2 bus=node_2604826686.1.2.3.4 conn=wye Kv=0.2200 Kva=45.0 %R=0.760
New Transformer.2432736488_2432736492 phases=3 windings=2 Xhl=3.700
~ wdg=1 bus=node_2604827654.1.2.3 conn=delta Kv=13.8 Kva=45.0 %R=0.760
~ wdg=2 bus=node_2604827491.1.2.3.4 conn=wye Kv=0.2200 Kva=45.0 %R=0.760
New Transformer.2432736564_2432736568 phases=3 windings=2 Xhl=3.700
~ wdg=1 bus=node_2604827600.1.2.3 conn=delta Kv=13.8 Kva=45.0 %R=0.760
~ wdg=2 bus=node_2711307243.1.2.3.4 conn=wye Kv=0.2200 Kva=45.0 %R=0.760
New Transformer.2432736712_2432736717 phases=3 windings=2 Xhl=3.700
~ wdg=1 bus=node_2604827735.1.2.3 conn=delta Kv=13.8 Kva=45.0 %R=0.760
~ wdg=2 bus=node_2604828219.1.2.3.4 conn=wye Kv=0.2200 Kva=45.0 %R=0.760
New Transformer.326253856_326723187 phases=3 windings=2 Xhl=3.700
~ wdg=1 bus=node_426948267.1.2.3 conn=delta Kv=13.8 Kva=45.0 %R=0.760
~ wdg=2 bus=node_403649796.1.2.3.4 conn=wye Kv=0.2200 Kva=45.0 %R=0.760
New Transformer.326254110_326786859 phases=3 windings=2 Xhl=3.700
~ wdg=1 bus=node_444294794.1.2.3 conn=delta Kv=13.8 Kva=45.0 %R=0.760
~ wdg=2 bus=node_403579034.1.2.3.4 conn=wye Kv=0.2200 Kva=45.0 %R=0.760
New Transformer.326255670_326786860 phases=3 windings=2 Xhl=3.700
~ wdg=1 bus=node_426949122.1.2.3 conn=delta Kv=13.8 Kva=45.0 %R=0.760
~ wdg=2 bus=node_403579028.1.2.3.4 conn=wye Kv=0.2200 Kva=45.0 %R=0.760
New Transformer.326255820_326723741 phases=3 windings=2 Xhl=3.700
~ wdg=1 bus=node_426462883.1.2.3 conn=delta Kv=13.8 Kva=45.0 %R=0.760
~ wdg=2 bus=node_415433984.1.2.3.4 conn=wye Kv=0.2200 Kva=45.0 %R=0.760
New Transformer.326255792_326767538 phases=3 windings=2 Xhl=3.700
~ wdg=1 bus=node_426624354.1.2.3 conn=delta Kv=13.8 Kva=45.0 %R=0.760
~ wdg=2 bus=node_744931709.1.2.3.4 conn=wye Kv=0.2200 Kva=45.0 %R=0.760
New Transformer.326254700_326767577 phases=3 windings=2 Xhl=3.700
~ wdg=1 bus=node_1942700276.1.2.3 conn=delta Kv=13.8 Kva=45.0 %R=0.760
~ wdg=2 bus=node_461996503.1.2.3.4 conn=wye Kv=0.2200 Kva=45.0 %R=0.760
New Transformer.326253981_326789650 phases=3 windings=2 Xhl=3.700
~ wdg=1 bus=node_2053236337.1.2.3 conn=delta Kv=13.8 Kva=45.0 %R=0.760
~ wdg=2 bus=node_403727990.1.2.3.4 conn=wye Kv=0.2200 Kva=45.0 %R=0.760
New Transformer.326254307_326744524 phases=3 windings=2 Xhl=3.700
~ wdg=1 bus=node_436849825.1.2.3 conn=delta Kv=13.8 Kva=45.0 %R=0.760
~ wdg=2 bus=node_414099194.1.2.3.4 conn=wye Kv=0.2200 Kva=45.0 %R=0.760
New Transformer.326254118_326744414 phases=3 windings=2 Xhl=3.700
~ wdg=1 bus=node_427790499.1.2.3 conn=delta Kv=13.8 Kva=45.0 %R=0.760
~ wdg=2 bus=node_403726907.1.2.3.4 conn=wye Kv=0.2200 Kva=45.0 %R=0.760
New Transformer.326256338_326747629 phases=3 windings=2 Xhl=3.700
~ wdg=1 bus=node_426623085.1.2.3 conn=delta Kv=13.8 Kva=45.0 %R=0.760
~ wdg=2 bus=node_415999482.1.2.3.4 conn=wye Kv=0.2200 Kva=45.0 %R=0.760
New Transformer.326256368_326725360 phases=3 windings=2 Xhl=3.700
~ wdg=1 bus=node_435112268.1.2.3 conn=delta Kv=13.8 Kva=45.0 %R=0.760
~ wdg=2 bus=node_414125050.1.2.3.4 conn=wye Kv=0.2200 Kva=45.0 %R=0.760
New Transformer.326256536_1535986844 phases=3 windings=2 Xhl=3.700
~ wdg=1 bus=node_426461494.1.2.3 conn=delta Kv=13.8 Kva=45.0 %R=0.760
~ wdg=2 bus=node_416120104.1.2.3.4 conn=wye Kv=0.2200 Kva=45.0 %R=0.760
New Transformer.326254923_326746238 phases=3 windings=2 Xhl=3.700
~ wdg=1 bus=node_426622286.1.2.3 conn=delta Kv=13.8 Kva=45.0 %R=0.760
~ wdg=2 bus=node_415962754.1.2.3.4 conn=wye Kv=0.2200 Kva=45.0 %R=0.760
New Transformer.326254868_1535986835 phases=3 windings=2 Xhl=3.700
~ wdg=1 bus=node_426461404.1.2.3 conn=delta Kv=13.8 Kva=45.0 %R=0.760
~ wdg=2 bus=node_416120128.1.2.3.4 conn=wye Kv=0.2200 Kva=45.0 %R=0.760
New Transformer.326254884_972002722 phases=3 windings=2 Xhl=3.700
~ wdg=1 bus=node_426797646.1.2.3 conn=delta Kv=13.8 Kva=45.0 %R=0.760
~ wdg=2 bus=node_403649919.1.2.3.4 conn=wye Kv=0.2200 Kva=45.0 %R=0.760
New Transformer.359808419_903723828 phases=3 windings=2 Xhl=3.700
~ wdg=1 bus=node_427073276.1.2.3 conn=delta Kv=13.8 Kva=45.0 %R=0.760
~ wdg=2 bus=node_414100466.1.2.3.4 conn=wye Kv=0.2200 Kva=45.0 %R=0.760
New Transformer.326257208_326725103 phases=3 windings=2 Xhl=3.700
~ wdg=1 bus=node_428275595.1.2.3 conn=delta Kv=13.8 Kva=45.0 %R=0.760
~ wdg=2 bus=node_414100445.1.2.3.4 conn=wye Kv=0.2200 Kva=45.0 %R=0.760
New Transformer.326257326_904337870 phases=3 windings=2 Xhl=3.700
~ wdg=1 bus=node_444746634.1.2.3 conn=delta Kv=13.8 Kva=45.0 %R=0.760
~ wdg=2 bus=node_414099059.1.2.3.4 conn=wye Kv=0.2200 Kva=45.0 %R=0.760
New Transformer.326255285_326747180 phases=3 windings=2 Xhl=3.700
~ wdg=1 bus=node_426462897.1.2.3 conn=delta Kv=13.8 Kva=45.0 %R=0.760
~ wdg=2 bus=node_415433978.1.2.3.4 conn=wye Kv=0.2200 Kva=45.0 %R=0.760
New Transformer.326255113_326706665 phases=3 windings=2 Xhl=3.700
~ wdg=1 bus=node_444294299.1.2.3 conn=delta Kv=13.8 Kva=45.0 %R=0.760
~ wdg=2 bus=node_471680826.1.2.3.4 conn=wye Kv=0.2200 Kva=45.0 %R=0.760
New Transformer.326256431_326725106 phases=3 windings=2 Xhl=3.700
~ wdg=1 bus=node_426623450.1.2.3 conn=delta Kv=13.8 Kva=45.0 %R=0.760
~ wdg=2 bus=node_414983722.1.2.3.4 conn=wye Kv=0.2200 Kva=45.0 %R=0.760
New Transformer.326255195_326706617 phases=3 windings=2 Xhl=3.700
~ wdg=1 bus=node_434340489.1.2.3 conn=delta Kv=13.8 Kva=45.0 %R=0.760
~ wdg=2 bus=node_418645327.1.2.3.4 conn=wye Kv=0.2200 Kva=45.0 %R=0.760
New Transformer.326255197_326746239 phases=3 windings=2 Xhl=3.700
~ wdg=1 bus=node_426623725.1.2.3 conn=delta Kv=13.8 Kva=45.0 %R=0.760
~ wdg=2 bus=node_415962706.1.2.3.4 conn=wye Kv=0.2200 Kva=45.0 %R=0.760
New Transformer.326256460_569122466 phases=3 windings=2 Xhl=3.700
~ wdg=1 bus=node_444292986.1.2.3 conn=delta Kv=13.8 Kva=45.0 %R=0.760
~ wdg=2 bus=node_403729793.1.2.3.4 conn=wye Kv=0.2200 Kva=45.0 %R=0.760
New Transformer.326256124_2564780443 phases=3 windings=2 Xhl=3.700
~ wdg=1 bus=node_426948857.1.2.3 conn=delta Kv=13.8 Kva=45.0 %R=0.760
~ wdg=2 bus=node_403579100.1.2.3.4 conn=wye Kv=0.2200 Kva=45.0 %R=0.760
New Transformer.326256218_326725105 phases=3 windings=2 Xhl=3.700
~ wdg=1 bus=node_428922863.1.2.3 conn=delta Kv=13.8 Kva=45.0 %R=0.760
~ wdg=2 bus=node_416002140.1.2.3.4 conn=wye Kv=0.2200 Kva=45.0 %R=0.760
New Transformer.326256477_326786855 phases=3 windings=2 Xhl=3.700
~ wdg=1 bus=node_426296484.1.2.3 conn=delta Kv=13.8 Kva=45.0 %R=0.760
~ wdg=2 bus=node_403727744.1.2.3.4 conn=wye Kv=0.2200 Kva=45.0 %R=0.760
New Transformer.326256545_1429597171 phases=3 windings=2 Xhl=3.700
~ wdg=1 bus=node_426797607.1.2.3 conn=delta Kv=13.8 Kva=45.0 %R=0.760
~ wdg=2 bus=node_403578914.1.2.3.4 conn=wye Kv=0.2200 Kva=45.0 %R=0.760
New Transformer.326257691_326744407 phases=3 windings=2 Xhl=3.700
~ wdg=1 bus=node_437027959.1.2.3 conn=delta Kv=13.8 Kva=45.0 %R=0.760
~ wdg=2 bus=node_414172489.1.2.3.4 conn=wye Kv=0.2200 Kva=45.0 %R=0.760
New Transformer.326257983_326787467 phases=3 windings=2 Xhl=3.700
~ wdg=1 bus=node_433879333.1.2.3 conn=delta Kv=13.8 Kva=45.0 %R=0.760
~ wdg=2 bus=node_417412496.1.2.3.4 conn=wye Kv=0.2200 Kva=45.0 %R=0.760
New Transformer.326256782_326789610 phases=3 windings=2 Xhl=3.700
~ wdg=1 bus=node_428922115.1.2.3 conn=delta Kv=13.8 Kva=45.0 %R=0.760
~ wdg=2 bus=node_403650042.1.2.3.4 conn=wye Kv=0.2200 Kva=45.0 %R=0.760
New Transformer.724595979_724595978 phases=3 windings=2 Xhl=3.700
~ wdg=1 bus=node_998381908.1.2.3 conn=delta Kv=13.8 Kva=45.0 %R=0.760
~ wdg=2 bus=node_998381952.1.2.3.4 conn=wye Kv=0.2200 Kva=45.0 %R=0.760
New Transformer.724596273_724596272 phases=3 windings=2 Xhl=3.700
~ wdg=1 bus=node_998382578.1.2.3 conn=delta Kv=13.8 Kva=45.0 %R=0.760
~ wdg=2 bus=node_998382415.1.2.3.4 conn=wye Kv=0.2200 Kva=45.0 %R=0.760
New Transformer.326257540_326789602 phases=3 windings=2 Xhl=3.700
~ wdg=1 bus=node_444294390.1.2.3 conn=delta Kv=13.8 Kva=45.0 %R=0.760
~ wdg=2 bus=node_403578935.1.2.3.4 conn=wye Kv=0.2200 Kva=45.0 %R=0.760
New Transformer.326257575_1535986853 phases=3 windings=2 Xhl=3.700
~ wdg=1 bus=node_426461384.1.2.3 conn=delta Kv=13.8 Kva=45.0 %R=0.760
~ wdg=2 bus=node_416119897.1.2.3.4 conn=wye Kv=0.2200 Kva=45.0 %R=0.760
New Transformer.326257856_326707155 phases=3 windings=2 Xhl=3.700
~ wdg=1 bus=node_430712153.1.2.3 conn=delta Kv=13.8 Kva=45.0 %R=0.760
~ wdg=2 bus=node_415888477.1.2.3.4 conn=wye Kv=0.2200 Kva=45.0 %R=0.760
New Transformer.326257918_326705501 phases=3 windings=2 Xhl=3.700
~ wdg=1 bus=node_426624105.1.2.3 conn=delta Kv=13.8 Kva=45.0 %R=0.760
~ wdg=2 bus=node_416039795.1.2.3.4 conn=wye Kv=0.2200 Kva=45.0 %R=0.760
New Transformer.1416766800_1416766799 phases=3 windings=2 Xhl=3.700
~ wdg=1 bus=node_426623579.1.2.3 conn=delta Kv=13.8 Kva=45.0 %R=0.760
~ wdg=2 bus=node_461007996.1.2.3.4 conn=wye Kv=0.2200 Kva=45.0 %R=0.760
New Transformer.1308373299_1308373298 phases=3 windings=2 Xhl=3.700
~ wdg=1 bus=node_1606849329.1.2.3 conn=delta Kv=13.8 Kva=45.0 %R=0.760
~ wdg=2 bus=node_1606849345.1.2.3.4 conn=wye Kv=0.2200 Kva=45.0 %R=0.760
New Transformer.1427733805_1427733804 phases=3 windings=2 Xhl=3.700
~ wdg=1 bus=node_1724303281.1.2.3 conn=delta Kv=13.8 Kva=45.0 %R=0.760
~ wdg=2 bus=node_1769168380.1.2.3.4 conn=wye Kv=0.2200 Kva=45.0 %R=0.760
New Transformer.1426690359_1426690358 phases=3 windings=2 Xhl=3.700
~ wdg=1 bus=node_1723083726.1.2.3 conn=delta Kv=13.8 Kva=45.0 %R=0.760
~ wdg=2 bus=node_1723083745.1.2.3.4 conn=wye Kv=0.2200 Kva=45.0 %R=0.760
New Transformer.359645600_359941493 phases=3 windings=2 Xhl=3.700
~ wdg=1 bus=node_435318253.1.2.3 conn=delta Kv=13.8 Kva=45.0 %R=0.760
~ wdg=2 bus=node_414123448.1.2.3.4 conn=wye Kv=0.2200 Kva=45.0 %R=0.760
New Transformer.1909065477_1909065478 phases=3 windings=2 Xhl=3.700
~ wdg=1 bus=node_2228011082.1.2.3 conn=delta Kv=13.8 Kva=45.0 %R=0.760
~ wdg=2 bus=node_2228010951.1.2.3.4 conn=wye Kv=0.2200 Kva=45.0 %R=0.760
New Transformer.1432508717_1432508716 phases=3 windings=2 Xhl=3.700
~ wdg=1 bus=node_1728807808.1.2.3 conn=delta Kv=13.8 Kva=45.0 %R=0.760
~ wdg=2 bus=node_1728807534.1.2.3.4 conn=wye Kv=0.2200 Kva=45.0 %R=0.760
New Transformer.1930376313_1930376320 phases=3 windings=2 Xhl=3.700
~ wdg=1 bus=node_437027085.1.2.3 conn=delta Kv=13.8 Kva=45.0 %R=0.760
~ wdg=2 bus=node_461007182.1.2.3.4 conn=wye Kv=0.2200 Kva=45.0 %R=0.760
New Transformer.500796485_500796484 phases=3 windings=2 Xhl=3.700
~ wdg=1 bus=node_771022231.1.2.3 conn=delta Kv=13.8 Kva=45.0 %R=0.760
~ wdg=2 bus=node_771022242.1.2.3.4 conn=wye Kv=0.2200 Kva=45.0 %R=0.760
New Transformer.359647867_359918083 phases=3 windings=2 Xhl=3.700
~ wdg=1 bus=node_427072947.1.2.3 conn=delta Kv=13.8 Kva=45.0 %R=0.760
~ wdg=2 bus=node_555127547.1.2.3.4 conn=wye Kv=0.2200 Kva=45.0 %R=0.760
New Transformer.326520063_326766994 phases=3 windings=2 Xhl=3.700
~ wdg=1 bus=node_426797617.1.2.3 conn=delta Kv=13.8 Kva=45.0 %R=0.760
~ wdg=2 bus=node_403578917.1.2.3.4 conn=wye Kv=0.2200 Kva=45.0 %R=0.760
New Transformer.1475856542_1475856543 phases=3 windings=2 Xhl=3.700
~ wdg=1 bus=node_1783019361.1.2.3 conn=delta Kv=13.8 Kva=45.0 %R=0.760
~ wdg=2 bus=node_1783019215.1.2.3.4 conn=wye Kv=0.2200 Kva=45.0 %R=0.760
New Transformer.1493011057_1493011065 phases=3 windings=2 Xhl=3.700
~ wdg=1 bus=node_1803119316.1.2.3 conn=delta Kv=13.8 Kva=45.0 %R=0.760
~ wdg=2 bus=node_1803119309.1.2.3.4 conn=wye Kv=0.2200 Kva=45.0 %R=0.760
New Transformer.1493011177_1493011192 phases=3 windings=2 Xhl=3.700
~ wdg=1 bus=node_1803119762.1.2.3 conn=delta Kv=13.8 Kva=45.0 %R=0.760
~ wdg=2 bus=node_1803119630.1.2.3.4 conn=wye Kv=0.2200 Kva=45.0 %R=0.760
New Transformer.1493011266_1493011270 phases=3 windings=2 Xhl=3.700
~ wdg=1 bus=node_1803119888.1.2.3 conn=delta Kv=13.8 Kva=45.0 %R=0.760
~ wdg=2 bus=node_1803120909.1.2.3.4 conn=wye Kv=0.2200 Kva=45.0 %R=0.760
New Transformer.1493011341_1493011356 phases=3 windings=2 Xhl=3.700
~ wdg=1 bus=node_1803120085.1.2.3 conn=delta Kv=13.8 Kva=45.0 %R=0.760
~ wdg=2 bus=node_1803120080.1.2.3.4 conn=wye Kv=0.2200 Kva=45.0 %R=0.760
New Transformer.326520593_326789776 phases=3 windings=2 Xhl=3.700
~ wdg=1 bus=node_429078027.1.2.3 conn=delta Kv=13.8 Kva=45.0 %R=0.760
~ wdg=2 bus=node_403652598.1.2.3.4 conn=wye Kv=0.2200 Kva=45.0 %R=0.760
New Transformer.326520242_326747628 phases=3 windings=2 Xhl=3.700
~ wdg=1 bus=node_426623205.1.2.3 conn=delta Kv=13.8 Kva=45.0 %R=0.760
~ wdg=2 bus=node_415962760.1.2.3.4 conn=wye Kv=0.2200 Kva=45.0 %R=0.760
New Transformer.326520252_326705616 phases=3 windings=2 Xhl=3.700
~ wdg=1 bus=node_426624125.1.2.3 conn=delta Kv=13.8 Kva=45.0 %R=0.760
~ wdg=2 bus=node_414100451.1.2.3.4 conn=wye Kv=0.2200 Kva=45.0 %R=0.760
New Transformer.1378318723_1378318722 phases=3 windings=2 Xhl=3.700
~ wdg=1 bus=node_1673068032.1.2.3 conn=delta Kv=13.8 Kva=45.0 %R=0.760
~ wdg=2 bus=node_1673068061.1.2.3.4 conn=wye Kv=0.2200 Kva=45.0 %R=0.760
New Transformer.326520786_326705036 phases=3 windings=2 Xhl=3.700
~ wdg=1 bus=node_437027120.1.2.3 conn=delta Kv=13.8 Kva=45.0 %R=0.760
~ wdg=2 bus=node_414170341.1.2.3.4 conn=wye Kv=0.2200 Kva=45.0 %R=0.760
New Transformer.326520702_326744393 phases=3 windings=2 Xhl=3.700
~ wdg=1 bus=node_444294967.1.2.3 conn=delta Kv=13.8 Kva=45.0 %R=0.760
~ wdg=2 bus=node_403579328.1.2.3.4 conn=wye Kv=0.2200 Kva=45.0 %R=0.760
New Transformer.359727087_359917000 phases=3 windings=2 Xhl=3.700
~ wdg=1 bus=node_427073676.1.2.3 conn=delta Kv=13.8 Kva=45.0 %R=0.760
~ wdg=2 bus=node_414121963.1.2.3.4 conn=wye Kv=0.2200 Kva=45.0 %R=0.760
New Transformer.326521362_326786890 phases=3 windings=2 Xhl=3.700
~ wdg=1 bus=node_428276465.1.2.3 conn=delta Kv=13.8 Kva=45.0 %R=0.760
~ wdg=2 bus=node_414125017.1.2.3.4 conn=wye Kv=0.2200 Kva=45.0 %R=0.760
New Transformer.326521937_326744425 phases=3 windings=2 Xhl=3.700
~ wdg=1 bus=node_426794493.1.2.3 conn=delta Kv=13.8 Kva=45.0 %R=0.760
~ wdg=2 bus=node_416044962.1.2.3.4 conn=wye Kv=0.2200 Kva=45.0 %R=0.760
New Transformer.326521900_326705013 phases=3 windings=2 Xhl=3.700
~ wdg=1 bus=node_428922479.1.2.3 conn=delta Kv=13.8 Kva=45.0 %R=0.760
~ wdg=2 bus=node_403649034.1.2.3.4 conn=wye Kv=0.2200 Kva=45.0 %R=0.760
New Transformer.326522239_1827955800 phases=3 windings=2 Xhl=3.700
~ wdg=1 bus=node_426622685.1.2.3 conn=delta Kv=13.8 Kva=45.0 %R=0.760
~ wdg=2 bus=node_414123418.1.2.3.4 conn=wye Kv=0.2200 Kva=45.0 %R=0.760
New Transformer.326522144_326723286 phases=3 windings=2 Xhl=3.700
~ wdg=1 bus=node_429078502.1.2.3 conn=delta Kv=13.8 Kva=45.0 %R=0.760
~ wdg=2 bus=node_414073731.1.2.3.4 conn=wye Kv=0.2200 Kva=45.0 %R=0.760
New Transformer.326522942_326725098 phases=3 windings=2 Xhl=3.700
~ wdg=1 bus=node_426462562.1.2.3 conn=delta Kv=13.8 Kva=45.0 %R=0.760
~ wdg=2 bus=node_416039105.1.2.3.4 conn=wye Kv=0.2200 Kva=45.0 %R=0.760
New Transformer.326522994_326745685 phases=3 windings=2 Xhl=3.700
~ wdg=1 bus=node_426797692.1.2.3 conn=delta Kv=13.8 Kva=45.0 %R=0.760
~ wdg=2 bus=node_403649916.1.2.3.4 conn=wye Kv=0.2200 Kva=45.0 %R=0.760
New Transformer.326523247_326765043 phases=3 windings=2 Xhl=3.700
~ wdg=1 bus=node_435112900.1.2.3 conn=delta Kv=13.8 Kva=45.0 %R=0.760
~ wdg=2 bus=node_415889368.1.2.3.4 conn=wye Kv=0.2200 Kva=45.0 %R=0.760
New Transformer.326523317_326747622 phases=3 windings=2 Xhl=3.700
~ wdg=1 bus=node_426948402.1.2.3 conn=delta Kv=13.8 Kva=45.0 %R=0.760
~ wdg=2 bus=node_406721565.1.2.3.4 conn=wye Kv=0.2200 Kva=45.0 %R=0.760
New Transformer.326523101_1535986823 phases=3 windings=2 Xhl=3.700
~ wdg=1 bus=node_426462608.1.2.3 conn=delta Kv=13.8 Kva=45.0 %R=0.760
~ wdg=2 bus=node_416119888.1.2.3.4 conn=wye Kv=0.2200 Kva=45.0 %R=0.760
New Transformer.326523602_326706877 phases=3 windings=2 Xhl=3.700
~ wdg=1 bus=node_426459700.1.2.3 conn=delta Kv=13.8 Kva=45.0 %R=0.760
~ wdg=2 bus=node_415999353.1.2.3.4 conn=wye Kv=0.2200 Kva=45.0 %R=0.760
New Transformer.326523626_326745694 phases=3 windings=2 Xhl=3.700
~ wdg=1 bus=node_444294125.1.2.3 conn=delta Kv=13.8 Kva=45.0 %R=0.760
~ wdg=2 bus=node_403649049.1.2.3.4 conn=wye Kv=0.2200 Kva=45.0 %R=0.760
New Transformer.326523666_326706464 phases=3 windings=2 Xhl=3.700
~ wdg=1 bus=node_434636068.1.2.3 conn=delta Kv=13.8 Kva=45.0 %R=0.760
~ wdg=2 bus=node_406022070.1.2.3.4 conn=wye Kv=0.2200 Kva=45.0 %R=0.760
New Transformer.1596698551_1596698552 phases=3 windings=2 Xhl=3.700
~ wdg=1 bus=node_1860509098.1.2.3 conn=delta Kv=13.8 Kva=45.0 %R=0.760
~ wdg=2 bus=node_1860508685.1.2.3.4 conn=wye Kv=0.2200 Kva=45.0 %R=0.760
New Transformer.1596698554_1596698555 phases=3 windings=2 Xhl=3.700
~ wdg=1 bus=node_1860509181.1.2.3 conn=delta Kv=13.8 Kva=45.0 %R=0.760
~ wdg=2 bus=node_1860508858.1.2.3.4 conn=wye Kv=0.2200 Kva=45.0 %R=0.760
New Transformer.326104321_326745691 phases=3 windings=2 Xhl=3.700
~ wdg=1 bus=node_426948486.1.2.3 conn=delta Kv=13.8 Kva=45.0 %R=0.760
~ wdg=2 bus=node_403579109.1.2.3.4 conn=wye Kv=0.2200 Kva=45.0 %R=0.760
New Transformer.326105110_326723172 phases=3 windings=2 Xhl=3.700
~ wdg=1 bus=node_428276309.1.2.3 conn=delta Kv=13.8 Kva=45.0 %R=0.760
~ wdg=2 bus=node_418164385.1.2.3.4 conn=wye Kv=0.2200 Kva=45.0 %R=0.760
New Transformer.326104077_326725112 phases=3 windings=2 Xhl=3.700
~ wdg=1 bus=node_426623040.1.2.3 conn=delta Kv=13.8 Kva=45.0 %R=0.760
~ wdg=2 bus=node_415962700.1.2.3.4 conn=wye Kv=0.2200 Kva=45.0 %R=0.760
New Transformer.326103842_326745696 phases=3 windings=2 Xhl=3.700
~ wdg=1 bus=node_426948932.1.2.3 conn=delta Kv=13.8 Kva=45.0 %R=0.760
~ wdg=2 bus=node_403649769.1.2.3.4 conn=wye Kv=0.2200 Kva=45.0 %R=0.760
New Transformer.326104042_326705009 phases=3 windings=2 Xhl=3.700
~ wdg=1 bus=node_444294150.1.2.3 conn=delta Kv=13.8 Kva=45.0 %R=0.760
~ wdg=2 bus=node_403649055.1.2.3.4 conn=wye Kv=0.2200 Kva=45.0 %R=0.760
New Transformer.326104907_1535986829 phases=3 windings=2 Xhl=3.700
~ wdg=1 bus=node_426462633.1.2.3 conn=delta Kv=13.8 Kva=45.0 %R=0.760
~ wdg=2 bus=node_416119891.1.2.3.4 conn=wye Kv=0.2200 Kva=45.0 %R=0.760
New Transformer.326104693_1535986841 phases=3 windings=2 Xhl=3.700
~ wdg=1 bus=node_426461499.1.2.3 conn=delta Kv=13.8 Kva=45.0 %R=0.760
~ wdg=2 bus=node_416120131.1.2.3.4 conn=wye Kv=0.2200 Kva=45.0 %R=0.760
New Transformer.326104627_2179342409 phases=3 windings=2 Xhl=3.700
~ wdg=1 bus=node_430710025.1.2.3 conn=delta Kv=13.8 Kva=45.0 %R=0.760
~ wdg=2 bus=node_415107464.1.2.3.4 conn=wye Kv=0.2200 Kva=45.0 %R=0.760
New Transformer.326104652_326744523 phases=3 windings=2 Xhl=3.700
~ wdg=1 bus=node_437350263.1.2.3 conn=delta Kv=13.8 Kva=45.0 %R=0.760
~ wdg=2 bus=node_414122056.1.2.3.4 conn=wye Kv=0.2200 Kva=45.0 %R=0.760
New Transformer.326105624_326768595 phases=3 windings=2 Xhl=3.700
~ wdg=1 bus=node_444295351.1.2.3 conn=delta Kv=13.8 Kva=45.0 %R=0.760
~ wdg=2 bus=node_471581485.1.2.3.4 conn=wye Kv=0.2200 Kva=45.0 %R=0.760
New Transformer.326107122_2179728875 phases=3 windings=2 Xhl=3.700
~ wdg=1 bus=node_428922020.1.2.3 conn=delta Kv=13.8 Kva=45.0 %R=0.760
~ wdg=2 bus=node_415966277.1.2.3.4 conn=wye Kv=0.2200 Kva=45.0 %R=0.760
New Transformer.326107130_326787073 phases=3 windings=2 Xhl=3.700
~ wdg=1 bus=node_437026215.1.2.3 conn=delta Kv=13.8 Kva=45.0 %R=0.760
~ wdg=2 bus=node_414122065.1.2.3.4 conn=wye Kv=0.2200 Kva=45.0 %R=0.760
New Transformer.326105153_326764937 phases=3 windings=2 Xhl=3.700
~ wdg=1 bus=node_434636509.1.2.3 conn=delta Kv=13.8 Kva=45.0 %R=0.760
~ wdg=2 bus=node_406617565.1.2.3.4 conn=wye Kv=0.2200 Kva=45.0 %R=0.760
New Transformer.326105365_326786886 phases=3 windings=2 Xhl=3.700
~ wdg=1 bus=node_436849871.1.2.3 conn=delta Kv=13.8 Kva=45.0 %R=0.760
~ wdg=2 bus=node_414123694.1.2.3.4 conn=wye Kv=0.2200 Kva=45.0 %R=0.760
New Transformer.326106783_326765041 phases=3 windings=2 Xhl=3.700
~ wdg=1 bus=node_427793507.1.2.3 conn=delta Kv=13.8 Kva=45.0 %R=0.760
~ wdg=2 bus=node_415433507.1.2.3.4 conn=wye Kv=0.2200 Kva=45.0 %R=0.760
New Transformer.326105532_326743354 phases=3 windings=2 Xhl=3.700
~ wdg=1 bus=node_444816406.1.2.3 conn=delta Kv=13.8 Kva=45.0 %R=0.760
~ wdg=2 bus=node_474509707.1.2.3.4 conn=wye Kv=0.2200 Kva=45.0 %R=0.760
New Transformer.326105249_326723191 phases=3 windings=2 Xhl=3.700
~ wdg=1 bus=node_428922779.1.2.3 conn=delta Kv=13.8 Kva=45.0 %R=0.760
~ wdg=2 bus=node_403649766.1.2.3.4 conn=wye Kv=0.2200 Kva=45.0 %R=0.760
New Transformer.326105322_326747583 phases=3 windings=2 Xhl=3.700
~ wdg=1 bus=node_426624090.1.2.3 conn=delta Kv=13.8 Kva=45.0 %R=0.760
~ wdg=2 bus=node_416039315.1.2.3.4 conn=wye Kv=0.2200 Kva=45.0 %R=0.760
New Transformer.326106256_326786851 phases=3 windings=2 Xhl=3.700
~ wdg=1 bus=node_426948336.1.2.3 conn=delta Kv=13.8 Kva=45.0 %R=0.760
~ wdg=2 bus=node_403579337.1.2.3.4 conn=wye Kv=0.2200 Kva=45.0 %R=0.760
New Transformer.326107460_326723234 phases=3 windings=2 Xhl=3.700
~ wdg=1 bus=node_427790340.1.2.3 conn=delta Kv=13.8 Kva=45.0 %R=0.760
~ wdg=2 bus=node_403728236.1.2.3.4 conn=wye Kv=0.2200 Kva=45.0 %R=0.760
New Transformer.326107384_326787075 phases=3 windings=2 Xhl=3.700
~ wdg=1 bus=node_437350184.1.2.3 conn=delta Kv=13.8 Kva=45.0 %R=0.760
~ wdg=2 bus=node_414123136.1.2.3.4 conn=wye Kv=0.2200 Kva=45.0 %R=0.760
New Transformer.326107410_326705015 phases=3 windings=2 Xhl=3.700
~ wdg=1 bus=node_426948892.1.2.3 conn=delta Kv=13.8 Kva=45.0 %R=0.760
~ wdg=2 bus=node_403578911.1.2.3.4 conn=wye Kv=0.2200 Kva=45.0 %R=0.760
New Transformer.326107736_2706345155 phases=3 windings=2 Xhl=3.700
~ wdg=1 bus=node_427793213.1.2.3 conn=delta Kv=13.8 Kva=45.0 %R=0.760
~ wdg=2 bus=node_414123982.1.2.3.4 conn=wye Kv=0.2200 Kva=45.0 %R=0.760
New Transformer.2618786326_2618786325 phases=3 windings=2 Xhl=3.700
~ wdg=1 bus=node_2773400620.1.2.3 conn=delta Kv=13.8 Kva=45.0 %R=0.760
~ wdg=2 bus=node_2773400487.1.2.3.4 conn=wye Kv=0.2200 Kva=45.0 %R=0.760
New Transformer.2215171578_2215171577 phases=3 windings=2 Xhl=3.700
~ wdg=1 bus=node_428276370.1.2.3 conn=delta Kv=13.8 Kva=45.0 %R=0.760
~ wdg=2 bus=node_750479584.1.2.3.4 conn=wye Kv=0.2200 Kva=45.0 %R=0.760
New Transformer.2705598283_2705598282 phases=3 windings=2 Xhl=4.960
~ wdg=1 bus=node_428922614.1.2.3 conn=delta Kv=13.8 Kva=45.0 %R=0.305
~ wdg=2 bus=node_414953869.1.2.3.4 conn=wye Kv=0.2200 Kva=45.0 %R=0.305
New Transformer.2530690433_2530690432 phases=1 windings=3 Xhl=2.139 Xht=2.139 Xlt=1.069
~ wdg=1 bus=node_2629843417.2 conn=wye Kv=7.9674 Kva=37.5 %R=0.646
~ wdg=2 bus=node_2629843403.1.4 conn=wye Kv=0.1200 Kva=37.5 %R=0.646
~ wdg=3 bus=node_2629843403.4.2 conn=wye Kv=0.1200 Kva=37.5 %R=0.646
New Transformer.2561439767_2561439766 phases=1 windings=3 Xhl=2.139 Xht=2.139 Xlt=1.069
~ wdg=1 bus=node_2698968112.3 conn=wye Kv=7.9674 Kva=37.5 %R=0.646
~ wdg=2 bus=node_2698968102.1.4 conn=wye Kv=0.1200 Kva=37.5 %R=0.646
~ wdg=3 bus=node_2698968102.4.2 conn=wye Kv=0.1200 Kva=37.5 %R=0.646
New Transformer.2605248080_2605248087 phases=1 windings=3 Xhl=2.139 Xht=2.139 Xlt=1.069
~ wdg=1 bus=node_2758403135.1 conn=wye Kv=7.9674 Kva=37.5 %R=0.646
~ wdg=2 bus=node_2758402983.1.4 conn=wye Kv=0.1200 Kva=37.5 %R=0.646
~ wdg=3 bus=node_2758402983.4.2 conn=wye Kv=0.1200 Kva=37.5 %R=0.646
New Transformer.326105289_326788501 phases=1 windings=3 Xhl=2.139 Xht=2.139 Xlt=1.069
~ wdg=1 bus=node_429078492.3 conn=wye Kv=7.9674 Kva=37.5 %R=0.646
~ wdg=2 bus=node_414983548.1.4 conn=wye Kv=0.1200 Kva=37.5 %R=0.646
~ wdg=3 bus=node_414983548.4.2 conn=wye Kv=0.1200 Kva=37.5 %R=0.646
New Transformer.326105248_326745695 phases=1 windings=3 Xhl=2.139 Xht=2.139 Xlt=1.069
~ wdg=1 bus=node_434636783.2 conn=wye Kv=7.9674 Kva=37.5 %R=0.646
~ wdg=2 bus=node_403650033.1.4 conn=wye Kv=0.1200 Kva=37.5 %R=0.646
~ wdg=3 bus=node_403650033.4.2 conn=wye Kv=0.1200 Kva=37.5 %R=0.646
New Transformer.326106077_326706584 phases=1 windings=3 Xhl=2.139 Xht=2.139 Xlt=1.069
~ wdg=1 bus=node_428921575.2 conn=wye Kv=7.9674 Kva=37.5 %R=0.646
~ wdg=2 bus=node_415051668.1.4 conn=wye Kv=0.1200 Kva=37.5 %R=0.646
~ wdg=3 bus=node_415051668.4.2 conn=wye Kv=0.1200 Kva=37.5 %R=0.646
New Transformer.326106759_326705533 phases=1 windings=3 Xhl=2.139 Xht=2.139 Xlt=1.069
~ wdg=1 bus=node_426460229.2 conn=wye Kv=7.9674 Kva=37.5 %R=0.646
~ wdg=2 bus=node_416037287.1.4 conn=wye Kv=0.1200 Kva=37.5 %R=0.646
~ wdg=3 bus=node_416037287.4.2 conn=wye Kv=0.1200 Kva=37.5 %R=0.646
New Transformer.326105429_326745910 phases=1 windings=3 Xhl=2.139 Xht=2.139 Xlt=1.069
~ wdg=1 bus=node_426462423.1 conn=wye Kv=7.9674 Kva=37.5 %R=0.646
~ wdg=2 bus=node_414099941.1.4 conn=wye Kv=0.1200 Kva=37.5 %R=0.646
~ wdg=3 bus=node_414099941.4.2 conn=wye Kv=0.1200 Kva=37.5 %R=0.646
New Transformer.326106885_326765947 phases=1 windings=3 Xhl=2.139 Xht=2.139 Xlt=1.069
~ wdg=1 bus=node_430711274.3 conn=wye Kv=7.9674 Kva=37.5 %R=0.646
~ wdg=2 bus=node_414876006.1.4 conn=wye Kv=0.1200 Kva=37.5 %R=0.646
~ wdg=3 bus=node_414876006.4.2 conn=wye Kv=0.1200 Kva=37.5 %R=0.646
New Transformer.326107079_326786907 phases=1 windings=3 Xhl=2.139 Xht=2.139 Xlt=1.069
~ wdg=1 bus=node_428923133.3 conn=wye Kv=7.9674 Kva=37.5 %R=0.646
~ wdg=2 bus=node_414144626.1.4 conn=wye Kv=0.1200 Kva=37.5 %R=0.646
~ wdg=3 bus=node_414144626.4.2 conn=wye Kv=0.1200 Kva=37.5 %R=0.646
New Transformer.326107049_2566681346 phases=1 windings=3 Xhl=2.139 Xht=2.139 Xlt=1.069
~ wdg=1 bus=node_430710315.2 conn=wye Kv=7.9674 Kva=37.5 %R=0.646
~ wdg=2 bus=node_415927035.1.4 conn=wye Kv=0.1200 Kva=37.5 %R=0.646
~ wdg=3 bus=node_415927035.4.2 conn=wye Kv=0.1200 Kva=37.5 %R=0.646
New Transformer.326106481_326768665 phases=1 windings=3 Xhl=2.139 Xht=2.139 Xlt=1.069
~ wdg=1 bus=node_430711854.2 conn=wye Kv=7.9674 Kva=37.5 %R=0.646
~ wdg=2 bus=node_415083591.1.4 conn=wye Kv=0.1200 Kva=37.5 %R=0.646
~ wdg=3 bus=node_415083591.4.2 conn=wye Kv=0.1200 Kva=37.5 %R=0.646
New Transformer.326104112_326765788 phases=1 windings=3 Xhl=2.139 Xht=2.139 Xlt=1.069
~ wdg=1 bus=node_430541925.1 conn=wye Kv=7.9674 Kva=37.5 %R=0.646
~ wdg=2 bus=node_415370203.1.4 conn=wye Kv=0.1200 Kva=37.5 %R=0.646
~ wdg=3 bus=node_415370203.4.2 conn=wye Kv=0.1200 Kva=37.5 %R=0.646
New Transformer.326103846_326724691 phases=1 windings=3 Xhl=2.139 Xht=2.139 Xlt=1.069
~ wdg=1 bus=node_428922305.3 conn=wye Kv=7.9674 Kva=37.5 %R=0.646
~ wdg=2 bus=node_419186994.1.4 conn=wye Kv=0.1200 Kva=37.5 %R=0.646
~ wdg=3 bus=node_419186994.4.2 conn=wye Kv=0.1200 Kva=37.5 %R=0.646
New Transformer.326104542_326768234 phases=1 windings=3 Xhl=2.139 Xht=2.139 Xlt=1.069
~ wdg=1 bus=node_434176748.3 conn=wye Kv=7.9674 Kva=37.5 %R=0.646
~ wdg=2 bus=node_414658051.1.4 conn=wye Kv=0.1200 Kva=37.5 %R=0.646
~ wdg=3 bus=node_414658051.4.2 conn=wye Kv=0.1200 Kva=37.5 %R=0.646
New Transformer.326103666_326789791 phases=1 windings=3 Xhl=2.139 Xht=2.139 Xlt=1.069
~ wdg=1 bus=node_426796563.3 conn=wye Kv=7.9674 Kva=37.5 %R=0.646
~ wdg=2 bus=node_414074010.1.4 conn=wye Kv=0.1200 Kva=37.5 %R=0.646
~ wdg=3 bus=node_414074010.4.2 conn=wye Kv=0.1200 Kva=37.5 %R=0.646
New Transformer.1578770700_1578770701 phases=1 windings=3 Xhl=2.139 Xht=2.139 Xlt=1.069
~ wdg=1 bus=node_1898527718.2 conn=wye Kv=7.9674 Kva=37.5 %R=0.646
~ wdg=2 bus=node_1898527704.1.4 conn=wye Kv=0.1200 Kva=37.5 %R=0.646
~ wdg=3 bus=node_1898527704.4.2 conn=wye Kv=0.1200 Kva=37.5 %R=0.646
New Transformer.2082375519_2082375518 phases=1 windings=3 Xhl=2.139 Xht=2.139 Xlt=1.069
~ wdg=1 bus=node_2394875777.2 conn=wye Kv=7.9674 Kva=37.5 %R=0.646
~ wdg=2 bus=node_2394875621.1.4 conn=wye Kv=0.1200 Kva=37.5 %R=0.646
~ wdg=3 bus=node_2394875621.4.2 conn=wye Kv=0.1200 Kva=37.5 %R=0.646
New Transformer.1804858481_1804858480 phases=1 windings=3 Xhl=2.139 Xht=2.139 Xlt=1.069
~ wdg=1 bus=node_2128514500.2 conn=wye Kv=7.9674 Kva=37.5 %R=0.646
~ wdg=2 bus=node_2128514452.1.4 conn=wye Kv=0.1200 Kva=37.5 %R=0.646
~ wdg=3 bus=node_2128514452.4.2 conn=wye Kv=0.1200 Kva=37.5 %R=0.646
New Transformer.326523265_326747178 phases=1 windings=3 Xhl=2.139 Xht=2.139 Xlt=1.069
~ wdg=1 bus=node_430377815.1 conn=wye Kv=7.9674 Kva=37.5 %R=0.646
~ wdg=2 bus=node_415433903.1.4 conn=wye Kv=0.1200 Kva=37.5 %R=0.646
...